Version 4
SHEET 1 5608 2428
WIRE -96 -736 -96 -768
WIRE 256 -736 256 -768
WIRE -96 -656 -160 -656
WIRE -32 -656 -96 -656
WIRE 256 -656 192 -656
WIRE 320 -656 256 -656
WIRE -160 -608 -160 -656
WIRE 192 -608 192 -656
WIRE -96 -576 -96 -592
WIRE -32 -576 -32 -592
WIRE -32 -576 -96 -576
WIRE 64 -576 -32 -576
WIRE 256 -576 256 -592
WIRE 320 -576 320 -592
WIRE 320 -576 256 -576
WIRE 416 -576 320 -576
WIRE -96 -560 -96 -576
WIRE -32 -560 -32 -576
WIRE 256 -560 256 -576
WIRE 320 -560 320 -576
WIRE -160 -496 -160 -544
WIRE -96 -496 -160 -496
WIRE -32 -496 -96 -496
WIRE 192 -496 192 -544
WIRE 256 -496 192 -496
WIRE 320 -496 256 -496
WIRE -896 -432 -1120 -432
WIRE -688 -432 -896 -432
WIRE -96 -432 -96 -496
WIRE 32 -432 32 -448
WIRE 32 -432 -16 -432
WIRE 256 -432 256 -496
WIRE 384 -432 384 -448
WIRE 384 -432 336 -432
WIRE 2560 -416 1600 -416
WIRE -896 -400 -896 -432
WIRE -688 -384 -688 -432
WIRE -1120 -368 -1120 -432
WIRE -736 -368 -768 -368
WIRE 1536 -352 1008 -352
WIRE 1600 -352 1600 -416
WIRE 1600 -352 1536 -352
WIRE 1904 -352 1600 -352
WIRE 224 -304 208 -304
WIRE -896 -288 -896 -320
WIRE -768 -288 -768 -368
WIRE -768 -288 -896 -288
WIRE -576 -288 -688 -288
WIRE -528 -288 -576 -288
WIRE -416 -288 -448 -288
WIRE 208 -288 208 -304
WIRE 1008 -288 1008 -352
WIRE 1904 -288 1904 -352
WIRE -1632 -256 -1632 -304
WIRE -1552 -256 -1632 -256
WIRE -1488 -256 -1488 -304
WIRE -1120 -256 -1120 -288
WIRE -1120 -256 -1200 -256
WIRE -416 -256 -416 -288
WIRE -384 -256 -416 -256
WIRE 144 -240 128 -240
WIRE -1120 -224 -1120 -256
WIRE -768 -224 -912 -224
WIRE -576 -224 -688 -224
WIRE -528 -224 -576 -224
WIRE -416 -224 -416 -256
WIRE -416 -224 -448 -224
WIRE 576 -208 544 -208
WIRE 672 -208 656 -208
WIRE 704 -208 672 -208
WIRE 816 -208 784 -208
WIRE 864 -208 816 -208
WIRE 928 -208 864 -208
WIRE 960 -208 928 -208
WIRE 1424 -208 1392 -208
WIRE 1520 -208 1504 -208
WIRE 1568 -208 1520 -208
WIRE 1696 -208 1648 -208
WIRE 1760 -208 1696 -208
WIRE 1792 -208 1760 -208
WIRE 1824 -208 1792 -208
WIRE 1856 -208 1824 -208
WIRE -1632 -192 -1632 -256
WIRE -912 -192 -912 -224
WIRE 928 -192 928 -208
WIRE 32 -176 -64 -176
WIRE 128 -176 128 -240
WIRE 128 -176 112 -176
WIRE 208 -176 208 -192
WIRE 288 -176 208 -176
WIRE 352 -176 288 -176
WIRE 816 -176 816 -208
WIRE 1696 -176 1696 -208
WIRE 1824 -176 1824 -208
WIRE 208 -160 208 -176
WIRE 864 -160 864 -208
WIRE 1760 -160 1760 -208
WIRE -768 -144 -768 -224
WIRE -736 -144 -768 -144
WIRE 1520 -144 1520 -208
WIRE 288 -128 288 -176
WIRE 352 -128 288 -128
WIRE 128 -112 128 -176
WIRE 144 -112 128 -112
WIRE 672 -112 672 -208
WIRE -1120 -96 -1120 -144
WIRE -912 -96 -912 -112
WIRE -912 -96 -1120 -96
WIRE -720 -96 -912 -96
WIRE -688 -96 -688 -128
WIRE -688 -96 -720 -96
WIRE 352 -96 352 -128
WIRE 928 -96 928 -112
WIRE 1008 -96 1008 -192
WIRE 1008 -96 928 -96
WIRE 352 -80 352 -96
WIRE 816 -80 816 -112
WIRE 1696 -80 1696 -112
WIRE 1824 -80 1824 -96
WIRE 1904 -80 1904 -192
WIRE 1904 -80 1824 -80
WIRE 864 -64 864 -96
WIRE 880 -64 864 -64
WIRE 1008 -64 1008 -96
WIRE 1008 -64 960 -64
WIRE 1520 -64 1520 -80
WIRE 208 -48 208 -64
WIRE 256 -48 208 -48
WIRE 1760 -48 1760 -96
WIRE 1776 -48 1760 -48
WIRE 1904 -48 1904 -80
WIRE 1904 -48 1856 -48
WIRE 256 -32 256 -48
WIRE 272 -32 256 -32
WIRE 672 -32 672 -48
WIRE 2560 -32 2560 -416
WIRE 896 -16 816 -16
WIRE 1008 -16 1008 -64
WIRE 1008 -16 976 -16
WIRE 1776 -16 1696 -16
WIRE 1904 -16 1904 -48
WIRE 1904 -16 1856 -16
WIRE 1520 16 1520 0
WIRE 1648 16 1520 16
WIRE 1904 16 1904 -16
WIRE 1904 16 1728 16
WIRE -896 32 -1120 32
WIRE -688 32 -896 32
WIRE 800 32 672 32
WIRE 1008 32 1008 -16
WIRE 1008 32 880 32
WIRE 1904 32 1904 16
WIRE 1904 32 1008 32
WIRE 2064 32 1904 32
WIRE 2176 32 2064 32
WIRE 2288 32 2256 32
WIRE 2432 32 2368 32
WIRE -896 64 -896 32
WIRE 224 64 208 64
WIRE 2432 64 2432 32
WIRE -688 80 -688 32
WIRE 208 80 208 64
WIRE 1008 80 1008 32
WIRE 1904 80 1904 32
WIRE 2064 80 2064 32
WIRE 2064 80 2048 80
WIRE -1120 96 -1120 32
WIRE -736 96 -784 96
WIRE 144 128 128 128
WIRE 576 160 544 160
WIRE 672 160 656 160
WIRE 704 160 672 160
WIRE 832 160 784 160
WIRE 880 160 832 160
WIRE 928 160 880 160
WIRE 944 160 928 160
WIRE 960 160 944 160
WIRE 1424 160 1392 160
WIRE 1536 160 1504 160
WIRE 1584 160 1536 160
WIRE 1776 160 1664 160
WIRE 1792 160 1776 160
WIRE 1840 160 1792 160
WIRE 1856 160 1840 160
WIRE -896 176 -896 144
WIRE -784 176 -784 96
WIRE -784 176 -896 176
WIRE -576 176 -688 176
WIRE -528 176 -576 176
WIRE -416 176 -448 176
WIRE 944 176 944 160
WIRE 1840 176 1840 160
WIRE 32 192 -80 192
WIRE 128 192 128 128
WIRE 128 192 112 192
WIRE 208 192 208 176
WIRE 288 192 208 192
WIRE 352 192 288 192
WIRE 832 192 832 160
WIRE 1776 192 1776 160
WIRE -1632 208 -1632 160
WIRE -1552 208 -1632 208
WIRE -1488 208 -1488 160
WIRE -1120 208 -1120 176
WIRE -1120 208 -1216 208
WIRE -416 208 -416 176
WIRE -384 208 -416 208
WIRE 208 208 208 192
WIRE 880 208 880 160
WIRE 1536 224 1536 160
WIRE -1216 240 -1216 208
WIRE -1120 240 -1120 208
WIRE -768 240 -912 240
WIRE -576 240 -688 240
WIRE -528 240 -576 240
WIRE -416 240 -416 208
WIRE -416 240 -448 240
WIRE 128 256 128 192
WIRE 144 256 128 256
WIRE 288 256 288 192
WIRE 320 256 288 256
WIRE 336 256 320 256
WIRE 672 256 672 160
WIRE 1904 256 1904 176
WIRE 1904 256 1840 256
WIRE -1632 272 -1632 208
WIRE -912 272 -912 240
WIRE 944 272 944 256
WIRE 1008 272 1008 176
WIRE 1008 272 944 272
WIRE 1712 272 1712 240
WIRE 832 288 832 256
WIRE 1776 288 1776 256
WIRE 1808 288 1776 288
WIRE 1904 288 1904 256
WIRE 1904 288 1888 288
WIRE 880 304 880 272
WIRE 896 304 880 304
WIRE 1008 304 1008 272
WIRE 1008 304 976 304
WIRE 1536 304 1536 288
WIRE -768 320 -768 240
WIRE -736 320 -768 320
WIRE 208 320 208 304
WIRE 224 320 208 320
WIRE 320 320 304 320
WIRE 336 320 320 320
WIRE 1760 336 1712 336
WIRE 1904 336 1904 288
WIRE 1904 336 1840 336
WIRE 896 352 832 352
WIRE 1008 352 1008 304
WIRE 1008 352 976 352
WIRE -1120 368 -1120 320
WIRE -912 368 -912 352
WIRE -912 368 -1120 368
WIRE -704 368 -912 368
WIRE -688 368 -688 336
WIRE -688 368 -704 368
WIRE 1664 368 1536 368
WIRE 1904 368 1904 336
WIRE 1904 368 1744 368
WIRE 752 384 672 384
WIRE 1008 384 1008 352
WIRE 1008 384 832 384
WIRE 1552 384 1008 384
WIRE 1904 384 1904 368
WIRE 1904 384 1552 384
WIRE 1552 448 1552 384
WIRE 2560 448 2560 48
WIRE 2560 448 1552 448
WIRE 1552 480 1552 448
WIRE -896 560 -992 560
WIRE -784 560 -816 560
WIRE -992 608 -992 560
WIRE -992 720 -992 688
WIRE -992 720 -1056 720
WIRE -896 752 -992 752
WIRE -784 752 -816 752
WIRE -992 816 -992 752
WIRE -976 896 -992 896
FLAG 544 -208 GH
FLAG 928 -208 G_H1
FLAG 1392 -208 GH
FLAG 1792 -208 G_H2
FLAG 544 160 GL
FLAG 928 160 G_L1
FLAG 1392 160 GL
FLAG 1792 160 G_L2
FLAG 2048 80 phase
FLAG 352 -176 GH
FLAG 352 192 GL
FLAG 2432 144 0
FLAG -896 -432 VH+
FLAG -912 -96 VH-
FLAG -896 32 VL+
FLAG -912 368 VL-
FLAG 208 -304 VH+
FLAG 208 -48 VH-
FLAG 208 64 VL+
FLAG 208 320 VL-
FLAG 1536 -352 supply
FLAG 256 -768 VH+
FLAG 384 -448 VH-
FLAG 416 -576 phase
FLAG -96 -768 VL+
FLAG 32 -448 VL-
FLAG 64 -576 0
FLAG -1632 352 0
FLAG -1632 160 PWM_L
FLAG -1488 160 PWMNot_L
FLAG -1216 240 0
FLAG -576 176 out+L
FLAG -576 240 out-L
FLAG -384 208 driverL
FLAG 1552 480 0
FLAG -1632 -112 0
FLAG -1632 -304 PWM_H
FLAG -1488 -304 PWMNot_H
FLAG -576 -288 out+H
FLAG -576 -224 out-H
FLAG -384 -256 driverH
FLAG -1200 -256 phase
FLAG -688 -432 VDDA
FLAG -688 32 VDDB
FLAG -720 -96 VSSA
FLAG -704 368 VSSB
FLAG -976 896 0
FLAG -1056 720 phase
FLAG -784 752 driverL_original
FLAG -784 560 driverH_original
FLAG -64 -176 driverH_original
FLAG -80 192 driverL_original
SYMBOL res 688 -192 R270
WINDOW 0 32 56 VTop 2
WINDOW 3 0 56 VBottom 2
SYMATTR InstName RG_H1
SYMATTR Value {Rg}
SYMBOL res 1552 -192 R270
WINDOW 0 32 56 VTop 2
WINDOW 3 0 56 VBottom 2
SYMATTR InstName RG_H2
SYMATTR Value {Rg}
SYMBOL voltage 2560 -48 R0
WINDOW 123 0 0 Left 2
WINDOW 39 0 0 Left 2
SYMATTR InstName V1
SYMATTR Value {VDC}
SYMBOL res 688 176 R270
WINDOW 0 32 56 VTop 2
WINDOW 3 82 54 VBottom 2
SYMATTR InstName RG_L1
SYMATTR Value {Rg}
SYMBOL res 1568 176 R270
WINDOW 0 32 56 VTop 2
WINDOW 3 0 56 VBottom 2
SYMATTR InstName RG_L2
SYMATTR Value {Rg}
SYMBOL ind 2160 48 R270
WINDOW 0 32 56 VTop 2
WINDOW 3 5 56 VBottom 2
SYMATTR InstName L1
SYMATTR Value 0.38m
SYMBOL res 2272 48 R270
WINDOW 0 32 56 VTop 2
WINDOW 3 0 56 VBottom 2
SYMATTR InstName R_Load
SYMATTR Value 2.5m
SYMBOL voltage 2432 48 R0
WINDOW 123 0 0 Left 2
WINDOW 39 0 0 Left 2
SYMATTR InstName V5
SYMATTR Value {VoltageCorrection}
SYMBOL PHPT60415NY 192 -240 R0
SYMATTR InstName U5
SYMBOL PHPT60415PY 192 -112 M180
SYMATTR InstName U6
SYMBOL res 128 -192 R90
WINDOW 0 0 56 VBottom 2
WINDOW 3 32 56 VTop 2
SYMATTR InstName R_BJT_H
SYMATTR Value {RPushPull}
SYMBOL res 1808 -192 R0
SYMATTR InstName R2
SYMATTR Value 100k
SYMBOL zener 832 -176 M0
SYMATTR InstName D1
SYMATTR Value EDZV10B
SYMATTR Description Diode
SYMATTR Type diode
SYMBOL diode 832 -16 R180
WINDOW 0 24 64 Left 2
WINDOW 3 24 0 Left 2
SYMATTR InstName D2
SYMATTR Value 1N4148
SYMBOL PHPT60415NY 192 128 R0
SYMATTR InstName U1
SYMBOL PHPT60415PY 192 256 M180
SYMATTR InstName U2
SYMBOL res 128 176 R90
WINDOW 0 0 56 VBottom 2
WINDOW 3 32 56 VTop 2
SYMATTR InstName R_BJT_L
SYMATTR Value {RPushPull}
SYMBOL zener 1712 -176 M0
SYMATTR InstName D3
SYMATTR Value EDZV10B
SYMATTR Description Diode
SYMATTR Type diode
SYMBOL diode 1712 -16 R180
WINDOW 0 24 64 Left 2
WINDOW 3 37 33 Left 2
SYMATTR InstName D4
SYMATTR Value 1N4148
SYMBOL diode 848 352 R180
WINDOW 0 24 64 Left 2
WINDOW 3 39 35 Left 2
SYMATTR InstName D6
SYMATTR Value 1N4148
SYMBOL zener 1728 176 M0
SYMATTR InstName D7
SYMATTR Value EDZV10B
SYMATTR Description Diode
SYMATTR Type diode
SYMBOL diode 1728 336 R180
WINDOW 0 24 64 Left 2
WINDOW 3 32 37 Left 2
SYMATTR InstName D8
SYMATTR Value 1N4148
SYMBOL res 912 -208 R0
SYMATTR InstName R1
SYMATTR Value 100k
SYMBOL res 928 160 R0
WINDOW 0 41 59 Left 2
WINDOW 3 34 81 Left 2
SYMATTR InstName R3
SYMATTR Value 100k
SYMBOL res 1824 160 R0
WINDOW 0 47 47 Left 2
WINDOW 3 32 80 Left 2
SYMATTR InstName R4
SYMATTR Value 100k
SYMBOL res 992 -32 R90
WINDOW 0 54 10 VBottom 2
WINDOW 3 26 -79 VTop 2
SYMATTR InstName R9
SYMATTR Value {RZenner}
SYMBOL res 1872 -32 R90
WINDOW 0 46 -5 VBottom 2
WINDOW 3 3 -104 VTop 2
SYMATTR InstName R10
SYMATTR Value {RZenner}
SYMBOL res 992 336 R90
WINDOW 0 46 5 VBottom 2
WINDOW 3 -6 -74 VTop 2
SYMATTR InstName R11
SYMATTR Value {RZenner}
SYMBOL res 1856 320 R90
WINDOW 0 43 -10 VBottom 2
WINDOW 3 -1 -115 VTop 2
SYMATTR InstName R12
SYMATTR Value {RZenner}
SYMBOL ind 560 -192 R270
WINDOW 0 32 56 VTop 2
WINDOW 3 5 56 VBottom 2
SYMATTR InstName L2
SYMATTR Value 30n
SYMBOL ind 560 176 R270
WINDOW 0 32 56 VTop 2
WINDOW 3 5 56 VBottom 2
SYMATTR InstName L3
SYMATTR Value 30n
SYMBOL ind 1408 176 R270
WINDOW 0 32 56 VTop 2
WINDOW 3 5 56 VBottom 2
SYMATTR InstName L4
SYMATTR Value 30n
SYMBOL ind 1408 -192 R270
WINDOW 0 32 56 VTop 2
WINDOW 3 5 56 VBottom 2
SYMATTR InstName L5
SYMATTR Value 30n
SYMBOL zener 848 192 M0
SYMATTR InstName D5
SYMATTR Value EDZV10B
SYMATTR Description Diode
SYMATTR Type diode
SYMBOL InfineonNMOS\\IPT012N08N5_L1 960 80 R0
SYMATTR InstName U3
SYMBOL InfineonNMOS\\IPT012N08N5_L1 1856 80 R0
SYMATTR InstName U4
SYMBOL InfineonNMOS\\IPT012N08N5_L1 1856 -288 R0
SYMATTR InstName U7
SYMBOL InfineonNMOS\\IPT012N08N5_L1 960 -288 R0
SYMATTR InstName U8
SYMBOL cap 176 -608 R0
SYMATTR InstName C1
SYMATTR Value 10µ
SYMBOL cap 240 -656 R0
SYMATTR InstName C2
SYMATTR Value 4.7µ
SYMBOL cap 304 -656 R0
SYMATTR InstName C3
SYMATTR Value 100n
SYMBOL cap 240 -560 R0
SYMATTR InstName C4
SYMATTR Value 4.7µ
SYMBOL cap 304 -560 R0
SYMATTR InstName C5
SYMATTR Value 100n
SYMBOL res 352 -448 R90
WINDOW 0 0 56 VBottom 2
WINDOW 3 32 56 VTop 2
SYMATTR InstName R5
SYMATTR Value 10m
SYMBOL res 272 -640 R180
WINDOW 0 36 76 Left 2
WINDOW 3 36 40 Left 2
SYMATTR InstName R6
SYMATTR Value 10m
SYMBOL cap -176 -608 R0
SYMATTR InstName C6
SYMATTR Value 10µ
SYMBOL cap -112 -656 R0
SYMATTR InstName C7
SYMATTR Value 4.7µ
SYMBOL cap -48 -656 R0
SYMATTR InstName C8
SYMATTR Value 100n
SYMBOL cap -112 -560 R0
SYMATTR InstName C9
SYMATTR Value 4.7µ
SYMBOL cap -48 -560 R0
SYMATTR InstName C10
SYMATTR Value 100n
SYMBOL res 0 -448 R90
WINDOW 0 0 56 VBottom 2
WINDOW 3 32 56 VTop 2
SYMATTR InstName R7
SYMATTR Value 10m
SYMBOL res -80 -640 R180
WINDOW 0 36 76 Left 2
WINDOW 3 36 40 Left 2
SYMATTR InstName R8
SYMATTR Value 10m
SYMBOL voltage -1120 80 R0
WINDOW 123 0 0 Left 0
WINDOW 39 24 124 Left 2
SYMATTR SpiceLine Rser=1m
SYMATTR InstName V2
SYMATTR Value 15
SYMBOL voltage -1120 224 R0
WINDOW 123 0 0 Left 0
WINDOW 39 24 124 Left 2
SYMATTR SpiceLine Rser=1m
SYMATTR InstName V9
SYMATTR Value 8.7
SYMBOL nmos -736 240 R0
SYMATTR InstName M1
SYMATTR Value BUK9Y5960E
SYMBOL pmos -736 176 M180
WINDOW 3 57 62 Left 2
SYMATTR Value FDC638P
SYMATTR InstName M2
SYMBOL res -432 224 R90
WINDOW 0 81 27 VBottom 2
WINDOW 3 32 56 VTop 2
SYMATTR InstName R13
SYMATTR Value {RNMOS}
SYMBOL res -432 160 R90
WINDOW 0 -18 36 VBottom 2
WINDOW 3 -25 55 VTop 2
SYMATTR InstName R14
SYMATTR Value {RPMOS}
SYMBOL voltage -1632 256 R0
WINDOW 123 0 0 Left 2
WINDOW 39 0 0 Left 2
WINDOW 3 -220 55 Left 2
SYMATTR Value PULSE(0 1 {11u+t_onH+DT} 10n 10n {t_onL} {T})
SYMATTR InstName V16
SYMBOL Digital\\inv -1552 144 R0
SYMATTR InstName A1
SYMBOL bv -896 48 R0
WINDOW 3 -162 56 Left 2
SYMATTR Value V = V(PWM_L)*VoltageLevel
SYMATTR InstName B1
SYMBOL bv -912 256 R0
WINDOW 3 -124 56 Left 2
SYMATTR Value V = V(PWMNot_L)*VoltageLevel
SYMATTR InstName B2
SYMBOL voltage -1120 -384 R0
WINDOW 123 0 0 Left 0
WINDOW 39 24 44 Left 2
SYMATTR SpiceLine Rser=1m
SYMATTR InstName V4
SYMATTR Value 15
SYMBOL voltage -1120 -240 R0
WINDOW 123 0 0 Left 0
WINDOW 39 24 44 Left 2
SYMATTR SpiceLine Rser=1m
SYMATTR InstName V10
SYMATTR Value 8.7
SYMBOL nmos -736 -224 R0
SYMATTR InstName M3
SYMATTR Value BUK9Y5960E
SYMBOL pmos -736 -288 M180
WINDOW 3 57 62 Left 2
SYMATTR Value FDC638P
SYMATTR InstName M4
SYMBOL res -432 -240 R90
WINDOW 0 82 31 VBottom 2
WINDOW 3 32 56 VTop 2
SYMATTR InstName R15
SYMATTR Value {RNMOS}
SYMBOL res -432 -304 R90
WINDOW 0 1 13 VBottom 2
WINDOW 3 -52 45 VTop 2
SYMATTR InstName R16
SYMATTR Value {RPMOS}
SYMBOL Digital\\inv -1552 -320 R0
SYMATTR InstName A2
SYMBOL bv -896 -416 R0
WINDOW 3 -156 38 Left 2
SYMATTR Value V = V(PWM_H)*VoltageLevel
SYMATTR InstName B3
SYMBOL bv -912 -208 R0
WINDOW 3 -124 56 Left 2
SYMATTR Value V = V(PWMNot_H)*VoltageLevel
SYMATTR InstName B4
SYMBOL voltage -1632 -208 R0
WINDOW 123 0 0 Left 2
WINDOW 39 0 0 Left 2
WINDOW 3 -204 57 Left 2
SYMATTR Value PULSE(0 1 11u 10n 10n {t_onH} {T})
SYMATTR InstName V17
SYMBOL zener 1536 -80 R180
WINDOW 0 34 62 Left 2
WINDOW 3 34 34 Left 2
SYMATTR InstName D12
SYMATTR Value UMZ20K
SYMBOL res 896 16 R90
WINDOW 0 63 131 VBottom 2
WINDOW 3 32 56 VTop 2
SYMATTR InstName R17
SYMATTR Value {Rzen2}
SYMBOL res 848 368 R90
WINDOW 0 59 128 VBottom 2
WINDOW 3 32 56 VTop 2
SYMATTR InstName R18
SYMATTR Value {Rzen2}
SYMBOL res 1632 32 R270
WINDOW 0 32 56 VTop 2
WINDOW 3 0 56 VBottom 2
SYMATTR InstName R19
SYMATTR Value {Rzen2}
SYMBOL res 1648 384 R270
WINDOW 0 -29 -19 VTop 2
WINDOW 3 0 56 VBottom 2
SYMATTR InstName R20
SYMATTR Value {Rzen2}
SYMBOL zener 1504 -64 R0
WINDOW 0 -50 13 Left 2
WINDOW 3 -104 42 Left 2
SYMATTR InstName D15
SYMATTR Value UMZ20K
SYMBOL diode 336 320 R180
WINDOW 0 24 64 Left 2
WINDOW 3 39 35 Left 2
SYMATTR InstName D17
SYMATTR Value 1N4148
SYMBOL diode 368 -32 R180
WINDOW 0 24 64 Left 2
WINDOW 3 39 35 Left 2
SYMATTR InstName D18
SYMATTR Value 1N4148
SYMBOL res 320 304 R90
WINDOW 0 85 51 VBottom 2
WINDOW 3 32 56 VTop 2
SYMATTR InstName R21
SYMATTR Value {Rzen3}
SYMBOL res 368 -48 R90
WINDOW 0 81 59 VBottom 2
WINDOW 3 32 56 VTop 2
SYMATTR InstName R22
SYMATTR Value {Rzen3}
SYMBOL voltage -992 592 R0
WINDOW 123 0 0 Left 2
WINDOW 39 0 0 Left 2
WINDOW 3 -204 57 Left 2
SYMATTR Value PULSE(-8.7 15 11u 10n 10n {t_onH} {T})
SYMATTR InstName V3
SYMBOL voltage -992 800 R0
WINDOW 123 0 0 Left 2
WINDOW 39 0 0 Left 2
WINDOW 3 -220 55 Left 2
SYMATTR Value PULSE(-8.7 15 {11u+t_onH+DT} 10n 10n {t_onL} {T})
SYMATTR InstName V6
SYMBOL res -800 736 R90
WINDOW 0 0 56 VBottom 2
WINDOW 3 32 56 VTop 2
SYMATTR InstName R23
SYMATTR Value 1
SYMBOL res -800 544 R90
WINDOW 0 0 56 VBottom 2
WINDOW 3 32 56 VTop 2
SYMATTR InstName R24
SYMATTR Value 1
SYMBOL zener 1552 288 R180
WINDOW 0 34 62 Left 2
WINDOW 3 34 34 Left 2
SYMATTR InstName D9
SYMATTR Value UMZ20K
SYMBOL zener 1520 304 R0
WINDOW 0 -50 13 Left 2
WINDOW 3 -104 42 Left 2
SYMATTR InstName D10
SYMATTR Value UMZ20K
SYMBOL zener 688 320 R180
WINDOW 0 34 62 Left 2
WINDOW 3 34 34 Left 2
SYMATTR InstName D11
SYMATTR Value UMZ20K
SYMBOL zener 656 320 R0
WINDOW 0 -50 13 Left 2
WINDOW 3 -104 42 Left 2
SYMATTR InstName D13
SYMATTR Value UMZ20K
SYMBOL zener 688 -48 R180
WINDOW 0 34 62 Left 2
WINDOW 3 34 34 Left 2
SYMATTR InstName D14
SYMATTR Value UMZ20K
SYMBOL zener 656 -32 R0
WINDOW 0 -50 13 Left 2
WINDOW 3 -104 42 Left 2
SYMATTR InstName D16
SYMATTR Value UMZ20K
SYMBOL cap 848 -160 R0
SYMATTR InstName C12
SYMATTR Value {Cgs}
SYMBOL res 976 -80 R90
WINDOW 0 16 -6 VBottom 2
WINDOW 3 1 -80 VTop 2
SYMATTR InstName R25
SYMATTR Value {Rcap}
SYMBOL cap 864 208 R0
SYMATTR InstName C11
SYMATTR Value {Cgs}
SYMBOL res 992 288 R90
WINDOW 0 4 64 VBottom 2
WINDOW 3 6 -73 VTop 2
SYMATTR InstName R26
SYMATTR Value {Rcap}
SYMBOL cap 1744 -160 R0
WINDOW 3 19 68 Left 2
SYMATTR InstName C13
SYMATTR Value {Cgs}
SYMBOL res 1872 -64 R90
WINDOW 0 44 -5 VBottom 2
WINDOW 3 5 -79 VTop 2
SYMATTR InstName R27
SYMATTR Value {Rcap}
SYMBOL cap 1760 192 R0
SYMATTR InstName C14
SYMATTR Value {Cgs}
SYMBOL res 1904 272 R90
WINDOW 0 58 20 VBottom 2
WINDOW 3 0 -47 VTop 2
SYMATTR InstName R28
SYMATTR Value {Rcap}
TEXT -120 576 Left 2 !.tran 0 65u 1u .01us
TEXT -120 800 Left 2 !.options gmin=1e-10\n.options cshunt=1e-15\n.options reltol=0.003\n.options abstol=1e-10
TEXT -112 648 Left 2 !.param Rg = 2.7\n.param RPushPull = 100
TEXT -136 624 Left 2 ;Gate resistances
TEXT 2136 -120 Left 2 ;Phase load
TEXT -136 776 Left 2 ;Simulation options, this parameters help the solver. Got from LTSpiceWIki
TEXT -136 552 Left 2 ;Transient control
TEXT -144 736 Left 2 !.param duty=0.25 freq=20k T={1/freq} DT=1u t_onH={T*duty-DT} t_onL={T*{1-duty}-DT}
TEXT -136 712 Left 2 ;Frequency control  -  PWM. Dead Time = 1 us
TEXT 2288 -120 Left 2 !.ic I(L1)=200
TEXT 184 -848 Left 2 ;Capacitor bank high side
TEXT -168 -848 Left 2 ;Capacitor bank low side
TEXT -1856 -16 Left 2 ;PWM Generation: Low Side
TEXT -1224 -16 Left 2 ;Driver Model
TEXT -1864 -480 Left 2 ;PWM Generation: High Side
TEXT -1224 -480 Left 2 ;Driver Model
TEXT -136 928 Left 2 ;Zenner and capacitor Protection Connection. For disabling protection, set resistance to a high value
TEXT -128 952 Left 2 !.param RZenner = 20m\n.param Rzen2 = 10MEG\n.param Rzen3 = 10MEG\n.param Rcap = 15m\n.param Cgs = 2.2n
TEXT -1232 496 Left 2 ;Driver Model - Original Spice
TEXT -144 1104 Left 2 ;DC Voltage and voltage correction (calculated by voltage divider)
TEXT -136 1128 Left 2 !.param VDC = 36\n.param VoltageCorrection = {VDC/3}
TEXT -136 1184 Left 2 ;New Driver approach parameters
TEXT -128 1216 Left 2 !.param RPMOS = 2\n.param RNMOS = 0.55\n.param VoltageLevel=3
TEXT -1248 -104 VRight 2 ;NOT USED
RECTANGLE Normal -1328 400 -1872 0 2
RECTANGLE Normal -1328 -64 -1872 -464 2
RECTANGLE Normal -272 -64 -1280 -464 2
RECTANGLE Normal -272 400 -1280 0 2
RECTANGLE Normal -512 928 -1280 512 2
RECTANGLE Normal 2512 192 2128 -96 2
